*SPEF "IEEE 1481-1998"
*DESIGN "booth_multiplier"
*DATE "Mon Jun 30 01:47:39 2014"
*VENDOR "Silicon Perspective, A Cadence Company"
*PROGRAM "First Encounter"
*VERSION "08.10-p004_1"
*DESIGN_FLOW "PIN_CAP NONE" "NAME_SCOPE LOCAL"
*DIVIDER /
*DELIMITER :
*BUS_DELIMITER []
*T_UNIT 1 NS
*C_UNIT 1 PF
*R_UNIT 1 OHM
*L_UNIT 1 HENRY

*NAME_MAP

*1 clk__L2_N0
*2 clk__L1_N0
*3 FE_PHN4_multiplier_1_
*4 FE_PHN3_multiplier_1_
*5 FE_PHN2_multiplier_0_
*6 FE_PHN1_multiplier_0_
*7 FE_PHN0_multiplier_0_
*8 clk
*9 reset
*10 multiplicand[3]
*11 multiplicand[2]
*12 multiplicand[1]
*13 multiplicand[0]
*14 multiplier[3]
*15 multiplier[2]
*16 multiplier[1]
*17 multiplier[0]
*18 product[7]
*19 product[6]
*20 product[5]
*21 product[4]
*22 product[3]
*23 product[2]
*24 product[1]
*25 product[0]
*26 done
*27 Q_1
*28 N25
*29 N26
*30 N27
*31 N28
*32 N41
*33 n8
*34 n9
*35 n10
*36 n11
*37 n12
*38 n13
*39 n14
*40 n15
*41 n16
*42 n17
*43 n18
*44 n19
*45 n20
*46 n22
*47 n23
*48 n24
*49 n25
*50 n26
*51 n28
*52 n29
*53 n30
*54 n31
*55 n32
*56 n33
*57 n34
*58 n36
*59 n37
*60 n38
*61 n39
*62 n40
*63 n41
*64 n42
*65 n43
*66 n44
*67 n45
*68 n46
*69 n47
*70 n48
*71 n49
*72 n50
*73 n52
*74 n53
*75 n54
*76 n55
*77 n56
*78 n57
*79 n58
*80 n59
*81 n60
*82 n61
*83 n62
*84 n65
*85 n75
*86 n76
*87 n77
*88 n78
*89 n79
*90 n80
*91 n81
*92 n82
*93 n83
*94 n84
*95 n85
*96 n86
*97 n87
*98 n88
*99 n89
*100 n90
*101 n91
*102 n92
*103 n93
*104 n94
*105 n95
*106 n96
*107 n97
*108 n98
*109 n99
*110 n100
*111 n101
*112 n102
*113 n103
*114 n104
*115 n105
*116 Q[3]
*117 Q[2]
*118 Q[1]
*119 Q[0]
*120 A[3]
*121 A[2]
*122 A[1]
*123 A[0]
*124 M[3]
*125 M[2]
*126 M[1]
*127 M[0]
*128 count[2]
*129 count[1]
*130 count[0]
*131 clk__L2_I0
*132 clk__L1_I0
*133 FE_PHC4_multiplier_1_
*134 FE_PHC3_multiplier_1_
*135 FE_PHC2_multiplier_0_
*136 FE_PHC1_multiplier_0_
*137 FE_PHC0_multiplier_0_
*138 M_reg\[3\]
*139 M_reg\[2\]
*140 M_reg\[1\]
*141 M_reg\[0\]
*142 count_reg\[1\]
*143 count_reg\[2\]
*144 done_reg
*145 Q_reg\[3\]
*146 Q_reg\[2\]
*147 Q_reg\[1\]
*148 Q_reg\[0\]
*149 A_reg\[1\]
*150 A_reg\[2\]
*151 A_reg\[3\]
*152 product_reg\[7\]
*153 product_reg\[6\]
*154 product_reg\[5\]
*155 product_reg\[4\]
*156 product_reg\[0\]
*157 product_reg\[1\]
*158 product_reg\[2\]
*159 product_reg\[3\]
*160 U3
*161 U4
*162 U5
*163 U6
*164 U7
*165 U8
*166 U9
*167 U10
*168 U11
*169 U12
*170 U13
*171 U14
*172 U15
*173 U16
*174 U17
*175 U18
*176 U19
*177 U20
*178 U21
*179 U22
*180 U23
*181 U25
*182 U26
*183 U27
*184 U31
*185 U33
*186 U34
*187 U35
*188 U36
*189 U37
*190 U38
*191 U39
*192 U40
*193 U41
*194 U42
*195 U43
*196 U44
*197 U45
*198 U46
*199 U47
*200 U48
*201 U49
*202 U50
*203 U51
*204 U52
*205 U53
*206 U55
*207 U56
*208 U57
*209 U58
*210 U59
*211 U60
*212 U61
*213 U62
*214 U63
*215 U66
*216 U67
*217 U68
*218 U69
*219 U70
*220 U71
*221 U72
*222 U73
*223 U74
*224 U75
*225 U76
*226 U78
*227 U79
*228 U80
*229 U82
*230 U83
*231 U84
*232 count_reg\[0\]
*233 Q_1_reg
*234 A_reg\[0\]
*235 U85
*236 U86
*237 U87


*PORTS

*8 I *C 33 0
*9 I *C 0 28
*10 I *C 23 0
*11 I *C 33 0
*12 I *C 24 54
*13 I *C 30 54
*14 I *C 23 0
*15 I *C 26 0
*16 I *C 26 54
*17 I *C 24 54
*18 O *C 29 0
*19 O *C 29 0
*20 O *C 37 54
*21 O *C 41 54
*22 O *C 22 0
*23 O *C 0 21
*24 O *C 0 28
*25 O *C 22 54
*26 O *C 38 54


*D_NET *1 0.00729622

*CONN
*I *157:CK I *C 25 28 *L 0.00093 *D SDFFR_X2
*I *146:CK I *C 22 26 *L 0.000923 *D DFFRS_X2
*I *148:CK I *C 22 33 *L 0.000923 *D DFFRS_X2
*I *156:CK I *C 26 31 *L 0.00093 *D SDFFR_X2
*I *159:CK I *C 25 24 *L 0.00093 *D SDFFR_X2
*I *158:CK I *C 25 21 *L 0.00093 *D SDFFR_X2
*I *233:CK I *C 29 32 *L 0.000914 *D DFFR_X2
*I *147:CK I *C 35 29 *L 0.000923 *D DFFRS_X2
*I *131:ZN O *C 30 27 *L 0 *D INV_X16
*I *153:CK I *C 32 25 *L 0.00093 *D SDFFR_X2
*I *145:CK I *C 35 22 *L 0.000923 *D DFFRS_X2
*I *152:CK I *C 32 21 *L 0.00093 *D SDFFR_X2
*I *150:CK I *C 37 24 *L 0.000915 *D DFFR_X1
*I *151:CK I *C 40 22 *L 0.000915 *D DFFR_X1
*I *143:CK I *C 38 25 *L 0.000903 *D DFFS_X2
*I *142:CK I *C 37 21 *L 0.000915 *D DFFR_X1
*I *232:CK I *C 38 27 *L 0.000914 *D DFFR_X2
*I *149:CK I *C 41 27 *L 0.000915 *D DFFR_X1
*I *154:CK I *C 41 29 *L 0.00093 *D SDFFR_X2
*I *144:CK I *C 41 30 *L 0.000915 *D DFFR_X1
*I *234:CK I *C 42 32 *L 0.000914 *D DFFR_X2
*I *155:CK I *C 38 33 *L 0.00093 *D SDFFR_X2

*CAP
1 *1:0 7.71233e-05
2 *1:1 7.71233e-05
3 *1:2 0.000137506
4 *1:3 4.09244e-07
5 *1:4 0.000132595
6 *1:5 2.29177e-05
7 *1:6 4.09244e-07
8 *1:7 6.54791e-06
9 *1:8 0.000357572
10 *1:9 1.14588e-05
11 *1:10 0.000140224
12 *1:13 0.000357572
13 *1:14 0.000217348
14 *1:15 0.000280448
15 *1:18 6.54791e-06
16 *1:19 0.000217348
17 *1:20 0.000140224
18 *1:21 3.6832e-06
19 *1:22 6.54791e-06
20 *1:23 0.000140973
21 *1:24 1.18681e-05
22 *1:25 3.6832e-06
23 *1:27 0.000140973
24 *1:29 1.18681e-05
25 *1:32 0.000154247
26 *1:36 7.71233e-05
27 *1:37 7.71233e-05
28 *1:39 1.11782e-05
29 *1:40 0.000162755
30 *1:41 1.11782e-05
31 *1:42 0.000249051
32 *1:44 8.6296e-05
33 *1:45 0.000149816
34 *1:48 0.000207435
35 *1:50 0.000201667
36 *1:51 9.17552e-05
37 *1:52 0.000223274
38 *1:53 7.85071e-06
39 *1:54 9.17552e-05
40 *1:55 7.92261e-05
41 *1:56 9.46992e-05
42 *1:57 7.85071e-06
43 *1:59 7.85071e-06
44 *1:60 0.00021982
45 *1:63 7.85071e-06
46 *1:64 0.000125121
47 *1:68 9.36309e-05
48 *1:71 0.00015125
49 *1:72 6.48214e-05
50 *1:73 0.000144048
51 *1:74 3.92535e-06
52 *1:75 5.04166e-05
53 *1:76 0.000135915
54 *1:77 7.20238e-05
55 *1:78 3.33655e-05
56 *1:79 3.92535e-06
57 *1:80 5.39736e-06
58 *1:81 0.000135915
59 *1:82 6.13337e-05
60 *1:83 3.33655e-05
61 *1:85 5.39736e-06
62 *1:87 0.000178604
63 *1:92 0.00011727
64 *1:96 5.04166e-05
65 *1:98 0.000128209
66 *1:99 0.000140893
67 *1:100 3.92535e-06
68 *1:101 6.31009e-05
69 *1:102 4.91843e-06
70 *1:103 3.92535e-06
71 *1:104 2.0568e-05
72 *1:105 4.91843e-06
73 *1:107 3.75589e-05
74 *1:110 1.69909e-05
75 *1:113 9.11457e-05
76 *1:115 0.000154247
77 *1:116 6.31009e-05
78 *1:117 8.49546e-06
79 *1:118 0.000178405
80 *1:119 8.49546e-06
81 *1:120 0.000178405

*RES
1 *1:122 *155:CK 6
2 *1:121 *234:CK 6
3 *1:120 *1:122 5
4 *1:119 *1:121 5
5 *1:118 *1:120 14.25
6 *1:117 *1:119 0.678571
7 *1:116 *1:118 5
8 *1:115 *1:117 5
9 *1:115 *1:116 1.89
10 *1:113 *1:115 2.73
11 *1:111 *144:CK 6
12 *1:110 *1:113 5
13 *1:108 *154:CK 6
14 *1:107 *1:111 5
15 *1:107 *1:110 1.35714
16 *1:106 *149:CK 6
17 *1:105 *1:108 5
18 *1:104 *1:107 1.64286
19 *1:103 *1:106 5
20 *1:102 *1:105 0.392857
21 *1:101 *1:104 5
22 *1:100 *1:103 0.285714
23 *1:99 *1:102 5
24 *1:99 *1:101 1.89
25 *1:98 *1:100 5
26 *1:98 *1:99 2.31
27 *1:96 *1:98 1.47
28 *1:93 *232:CK 6
29 *1:92 *1:96 5
30 *1:90 *142:CK 6
31 *1:88 *143:CK 6
32 *1:87 *1:93 5
33 *1:87 *1:92 8.53571
34 *1:86 *151:CK 6
35 *1:85 *1:90 5
36 *1:84 *150:CK 6
37 *1:83 *1:88 5
38 *1:82 *1:87 4.46429
39 *1:81 *1:86 5
40 *1:80 *1:85 0.392857
41 *1:79 *1:84 5
42 *1:78 *1:83 2.42857
43 *1:77 *1:82 5
44 *1:76 *1:81 9.89286
45 *1:75 *1:80 5
46 *1:74 *1:79 0.285714
47 *1:73 *1:78 5
48 *1:73 *1:77 2.1
49 *1:72 *1:76 5
50 *1:72 *1:75 1.47
51 *1:71 *1:74 5
52 *1:71 *1:73 2.1
53 *1:68 *1:72 0.42
54 *1:68 *1:71 2.31
55 *1:67 *152:CK 6
56 *1:65 *145:CK 6
57 *1:64 *1:68 5
58 *1:63 *1:67 5
59 *1:61 *153:CK 6
60 *1:60 *1:65 5
61 *1:60 *1:64 9.10714
62 *1:59 *1:63 0.571429
63 *1:58 *131:ZN 6
64 *1:57 *1:61 5
65 *1:56 *1:60 6.89286
66 *1:55 *1:59 5
67 *1:54 *1:58 5
68 *1:53 *1:57 0.571429
69 *1:52 *1:56 5
70 *1:52 *1:55 2.31
71 *1:51 *1:54 6.67857
72 *1:50 *1:53 5
73 *1:50 *1:52 4.2
74 *1:48 *1:51 5
75 *1:48 *1:50 1.68
76 *1:47 *147:CK 6
77 *1:45 *1:48 4.41
78 *1:44 *1:47 5
79 *1:43 *233:CK 6
80 *1:42 *1:45 5
81 *1:42 *1:44 6.89286
82 *1:41 *1:43 5
83 *1:40 *1:42 13
84 *1:39 *1:41 0.892857
85 *1:37 *1:40 5
86 *1:36 *1:39 5
87 *1:34 *158:CK 6
88 *1:32 *1:37 2.31
89 *1:32 *1:36 2.31
90 *1:30 *159:CK 6
91 *1:29 *1:34 5
92 *1:28 *156:CK 6
93 *1:27 *1:32 5
94 *1:26 *148:CK 6
95 *1:25 *1:30 5
96 *1:24 *1:29 1.03571
97 *1:23 *1:28 5
98 *1:23 *1:27 12
99 *1:22 *1:26 5
100 *1:21 *1:25 0.321429
101 *1:20 *1:24 5
102 *1:19 *1:23 5
103 *1:18 *1:22 0.571429
104 *1:15 *1:21 5
105 *1:15 *1:20 4.2
106 *1:14 *1:19 6.51
107 *1:13 *1:18 5
108 *1:12 *146:CK 6
109 *1:11 *157:CK 6
110 *1:10 *1:15 4.2
111 *1:9 *1:14 5
112 *1:8 *1:13 10.71
113 *1:7 *1:12 5
114 *1:6 *1:11 5
115 *1:5 *1:10 5
116 *1:5 *1:9 1
117 *1:4 *1:8 5
118 *1:4 *1:7 0.571429
119 *1:3 *1:6 0.0357143
120 *1:2 *1:5 1
121 *1:2 *1:4 11
122 *1:1 *1:3 5
123 *1:0 *1:2 5
124 *1:0 *1:1 2.31
*END

*D_NET *2 0.000335618

*CONN
*I *131:A I *C 30 26 *L 0.00714 *D INV_X16
*I *132:ZN O *C 34 26 *L 0 *D INV_X32

*CAP
1 *2:2 0.000167809
2 *2:3 0.000167809

*RES
1 *2:4 *132:ZN 6
2 *2:3 *2:4 5
3 *2:2 *2:3 12.2143
4 *2:1 *2:2 5
5 *131:A *2:1 6
*END

*D_NET *3 0.000512707

*CONN
*I *170:A2 I *C 26 29 *L 0.000583 *D OR2_X1
*I *133:Z O *C 27 32 *L 0 *D CLKBUF_X3

*CAP
1 *3:0 4.0759e-06
2 *3:1 4.0759e-06
3 *3:2 2.82188e-06
4 *3:3 6.46606e-05
5 *170:A2 2.82188e-06
6 *3:5 6.46606e-05
7 *3:6 0.000126202
8 *3:7 0.000126202
9 *3:8 1.02311e-05
10 *3:9 1.02311e-05
11 *3:10 3.40703e-05
12 *3:11 4.20131e-05
13 *3:12 7.94278e-06
14 *3:13 6.34924e-06
15 *133:Z 6.34924e-06

*RES
1 *3:13 *133:Z 0.920769
2 *3:12 *3:13 6
3 *3:11 *3:12 0.678571
4 *3:10 *3:11 2.91071
5 *3:9 *3:10 5
6 *3:8 *3:9 0.892857
7 *3:7 *3:8 5
8 *3:6 *3:7 3.78
9 *3:5 *3:6 5
10 *3:3 *3:5 5.64286
11 *3:2 *170:A2 0.409231
12 *3:1 *3:3 5
13 *3:0 *3:2 6
14 *3:0 *3:1 0.348214
*END

*D_NET *4 0.00107308

*CONN
*I *169:A1 I *C 26 32 *L 0.00059 *D NAND2_X1
*I *134:Z O *C 23 22 *L 0 *D BUF_X32

*CAP
1 *4:0 3.17711e-05
2 *4:1 0.000122381
3 *4:2 1.31016e-06
4 *4:3 9.06104e-05
5 *169:A1 1.31016e-06
6 *4:5 6.22051e-05
7 *4:6 6.22051e-05
8 *4:7 0.00033233
9 *4:8 0.000348426
10 *4:9 1.60955e-05
11 *4:10 2.21719e-06
12 *134:Z 2.21719e-06

*RES
1 *4:10 *134:Z 0.321538
2 *4:9 *4:10 6
3 *4:8 *4:9 1.35714
4 *4:7 *4:8 28.1161
5 *4:6 *4:7 5
6 *4:5 *4:6 5.42857
7 *4:3 *4:5 5
8 *4:2 *169:A1 0.19
9 *4:1 *4:3 7.74107
10 *4:0 *4:2 6
11 *4:0 *4:1 2.71429
*END

*D_NET *5 0.000527396

*CONN
*I *166:A1 I *C 24 32 *L 0.00059 *D NAND2_X1
*I *135:Z O *C 22 29 *L 0 *D BUF_X32

*CAP
1 *5:0 2.38283e-05
2 *5:1 0.000131996
3 *5:2 6.34924e-06
4 *5:3 0.000108168
5 *166:A1 6.34924e-06
6 *5:5 0.000101083
7 *5:6 0.000101083
8 *5:7 2.20517e-05
9 *5:8 2.20517e-05
10 *5:9 2.21719e-06
11 *135:Z 2.21719e-06

*RES
1 *5:9 *135:Z 0.321538
2 *5:8 *5:9 6
3 *5:7 *5:8 1.88393
4 *5:6 *5:7 5
5 *5:5 *5:6 8.82143
6 *5:3 *5:5 5
7 *5:2 *166:A1 0.920769
8 *5:1 *5:3 9.24107
9 *5:0 *5:2 6
10 *5:0 *5:1 2.03571
*END

*D_NET *6 0.00033593

*CONN
*I *167:A2 I *C 24 32 *L 0.000583 *D OR2_X1
*I *136:Z O *C 27 32 *L 0 *D CLKBUF_X3

*CAP
1 *6:0 2.16336e-05
2 *6:1 2.16336e-05
3 *6:2 2.82188e-06
4 *6:3 0.00012441
5 *167:A2 2.82188e-06
6 *6:5 0.00012441
7 *6:6 4.80747e-06
8 *6:7 1.27502e-05
9 *6:8 7.94278e-06
10 *6:9 6.34924e-06
11 *136:Z 6.34924e-06

*RES
1 *6:9 *136:Z 0.920769
2 *6:8 *6:9 6
3 *6:7 *6:8 0.678571
4 *6:6 *6:7 0.410714
5 *6:5 *6:6 5
6 *6:3 *6:5 10.8571
7 *6:2 *167:A2 0.409231
8 *6:1 *6:3 5
9 *6:0 *6:2 6
10 *6:0 *6:1 1.84821
*END

*D_NET *7 0.000244832

*CONN
*I *137:Z O *C 22 32 *L 0 *D BUF_X32
*I *135:A I *C 22 29 *L 0.000474 *D BUF_X32

*CAP
1 *7:0 0.000106705
2 *7:1 0.000106705
3 *7:2 2.21719e-06
4 *7:3 7.77564e-06
5 *137:Z 2.21719e-06
6 *7:5 7.77564e-06
7 *7:6 2.0902e-06
8 *7:7 2.0902e-06
9 *7:8 3.62814e-06
10 *135:A 3.62814e-06

*RES
1 *7:8 *135:A 0.526154
2 *7:7 *7:8 6
3 *7:6 *7:7 0.178571
4 *7:5 *7:6 5
5 *7:3 *7:5 0.678571
6 *7:2 *137:Z 0.321538
7 *7:1 *7:3 5
8 *7:0 *7:2 6
9 *7:0 *7:1 9.11607
*END

*D_NET *8 0.00266002

*CONN
*I *132:A I *C 33 27 *L 0.0142 *D INV_X32
*P *8 I *C 33 0 *L 0

*CAP
1 *8:1 6.02103e-06
2 *8:2 6.02103e-06
3 *8:3 2.45335e-06
4 *8:4 2.45335e-06
5 *8:5 0.0013066
6 *8:6 0.0013066
7 *8:7 2.04622e-06
8 *8:8 2.04622e-06
9 *8:9 1.28912e-05
10 *8 1.28912e-05

*RES
1 *8:9 *8 1.125
2 *8:8 *8:9 5
3 *8:7 *8:8 0.178571
4 *8:6 *8:7 5
5 *8:5 *8:6 38.64
6 *8:4 *8:5 5
7 *8:3 *8:4 0.178571
8 *8:2 *8:3 5
9 *8:1 *8:2 0.5
10 *132:A *8:1 6
*END

*D_NET *9 0.00489502

*CONN
*I *166:A2 I *C 24 32 *L 0.000523 *D NAND2_X1
*I *169:A2 I *C 26 32 *L 0.000523 *D NAND2_X1
*I *236:A I *C 26 29 *L 0.00365 *D INV_X8
*I *141:G I *C 30 33 *L 0.00113 *D DLH_X1
*I *140:G I *C 24 29 *L 0.00113 *D DLH_X1
*P *9 I *C 0 28 *L 0
*I *138:G I *C 22 25 *L 0.00113 *D DLH_X1
*I *175:A2 I *C 22 22 *L 0.000523 *D NAND2_X1
*I *172:A2 I *C 26 22 *L 0.000523 *D NAND2_X1
*I *139:G I *C 32 24 *L 0.00113 *D DLH_X1

*CAP
1 *9:0 7.94278e-06
2 *9:1 1.07646e-05
3 *9:2 6.34924e-06
4 *9:3 2.82178e-06
5 *166:A2 6.34924e-06
6 *9:5 9.33077e-05
7 *9:6 9.33077e-05
8 *9:7 0.000105346
9 *9:8 5.68536e-05
10 *9:9 0.000119142
11 *9:10 3.81462e-05
12 *9:11 1.58856e-05
13 *9:12 7.94278e-06
14 *9:13 8.67435e-06
15 *9:14 0.00015575
16 *9:15 1.31016e-06
17 *9:16 6.34924e-06
18 *9:17 0.000108859
19 *9:18 0.00015575
20 *169:A2 1.31016e-06
21 *236:A 6.34924e-06
22 *9:21 0.000108859
23 *9:22 1.66654e-05
24 *9:23 6.00004e-05
25 *9:24 2.48368e-05
26 *9:25 9.30141e-06
27 *9:26 5.86417e-05
28 *9:27 8.1714e-06
29 *9:28 7.94278e-06
30 *9:29 7.77564e-05
31 *9:30 3.93048e-06
32 *9:31 3.93048e-06
33 *9:32 0.000975843
34 *141:G 3.93048e-06
35 *140:G 3.93048e-06
36 *9 0.000898086
37 *9:36 0.000125905
38 *9:37 0.000253292
39 *9:38 1.60955e-05
40 *9:39 0.000111292
41 *9:40 3.93048e-06
42 *9:41 1.55513e-05
43 *138:G 3.93048e-06
44 *9:43 0.000202167
45 *9:44 0.000186615
46 *9:45 2.85907e-06
47 *9:46 6.21582e-05
48 *9:47 2.85907e-06
49 *9:48 5.92991e-05
50 *9:49 2.70023e-05
51 *9:50 1.31016e-06
52 *9:51 0.000242634
53 *9:52 2.41432e-05
54 *175:A2 1.31016e-06
55 *9:54 0.000242634
56 *9:55 6.34924e-06
57 *9:56 1.39774e-06
58 *172:A2 6.34924e-06
59 *9:58 9.56914e-06
60 *9:59 8.1714e-06
61 *9:60 3.93048e-06
62 *139:G 3.93048e-06

*RES
1 *9:60 *139:G 0.57
2 *9:59 *9:60 6
3 *9:58 *9:59 0.678571
4 *9:56 *9:58 0.116071
5 *9:55 *172:A2 0.920769
6 *9:54 *9:56 5
7 *9:52 *9:55 6
8 *9:51 *9:54 18.3214
9 *9:50 *175:A2 0.19
10 *9:49 *9:52 2.03571
11 *9:48 *9:51 5
12 *9:47 *9:50 6
13 *9:46 *9:49 0.241071
14 *9:46 *9:48 5
15 *9:45 *9:47 0.241071
16 *9:44 *9:46 5
17 *9:43 *9:45 5
18 *9:43 *9:44 16.2857
19 *9:41 *9:43 1.35714
20 *9:40 *138:G 0.57
21 *9:39 *9:41 5
22 *9:38 *9:40 6
23 *9:37 *9:39 9.38393
24 *9:37 *9:38 1.35714
25 *9:36 *9:37 10.6161
26 *9:32 *9:36 5
27 *9:32 *9 78.375
28 *9:31 *140:G 0.57
29 *9:30 *141:G 0.57
30 *9:29 *9:32 6.78571
31 *9:28 *9:31 6
32 *9:27 *9:30 6
33 *9:26 *9:29 5
34 *9:25 *9:28 0.678571
35 *9:24 *9:27 0.678571
36 *9:23 *9:26 5
37 *9:23 *9:25 0.116071
38 *9:22 *9:24 1.38393
39 *9:21 *9:23 5
40 *9:18 *9:22 5
41 *9:17 *9:21 9.5
42 *9:16 *236:A 0.920769
43 *9:15 *169:A2 0.19
44 *9:14 *9:18 12.8929
45 *9:13 *9:17 5
46 *9:12 *9:16 6
47 *9:11 *9:15 6
48 *9:10 *9:14 5
49 *9:9 *9:13 0.741071
50 *9:9 *9:12 0.678571
51 *9:8 *9:11 1.35714
52 *9:8 *9:10 3.25893
53 *9:7 *9:9 8.75893
54 *9:7 *9:8 0.241071
55 *9:6 *9:7 5
56 *9:5 *9:6 8.14286
57 *9:3 *9:5 5
58 *9:2 *166:A2 0.920769
59 *9:1 *9:3 0.241071
60 *9:0 *9:2 6
61 *9:0 *9:1 0.678571
*END

*D_NET *10 0.00221329

*CONN
*I *138:D I *C 22 25 *L 0.000991 *D DLH_X1
*P *10 I *C 23 0 *L 0

*CAP
1 *10:0 8.04774e-06
2 *10:1 9.42433e-06
3 *10:2 4.9383e-06
4 *10:3 1.37659e-06
5 *138:D 4.9383e-06
6 *10:5 2.45546e-06
7 *10:6 2.45546e-06
8 *10:7 0.000224359
9 *10:8 0.000224359
10 *10:9 2.86471e-05
11 *10:10 2.86471e-05
12 *10:11 0.000836823
13 *10 0.000836823

*RES
1 *10:11 *10 72.25
2 *10:10 *10:11 5
3 *10:9 *10:10 2.5
4 *10:8 *10:9 5
5 *10:7 *10:8 6.72
6 *10:6 *10:7 5
7 *10:5 *10:6 0.214286
8 *10:3 *10:5 5
9 *10:2 *138:D 0.716154
10 *10:1 *10:3 0.116071
11 *10:0 *10:2 6
12 *10:0 *10:1 0.678571
*END

*D_NET *11 0.00253052

*CONN
*I *139:D I *C 32 24 *L 0.000991 *D DLH_X1
*P *11 I *C 33 0 *L 0

*CAP
1 *11:0 8.1714e-06
2 *11:1 9.56914e-06
3 *11:2 4.9383e-06
4 *11:3 1.39774e-06
5 *139:D 4.9383e-06
6 *11:5 4.90669e-05
7 *11:6 4.90669e-05
8 *11:7 0.00120169
9 *11 0.00120169

*RES
1 *11:7 *11 35.595
2 *11:6 *11:7 5
3 *11:5 *11:6 3.57143
4 *11:3 *11:5 5
5 *11:2 *139:D 0.716154
6 *11:1 *11:3 0.116071
7 *11:0 *11:2 6
8 *11:0 *11:1 0.678571
*END

*D_NET *12 0.00208207

*CONN
*P *12 I *C 24 54 *L 0
*I *140:D I *C 24 29 *L 0.000991 *D DLH_X1

*CAP
1 *12:0 1.58856e-05
2 *12:1 0.0010361
3 *12:2 4.9383e-06
4 *12 0.00102021
5 *140:D 4.9383e-06

*RES
1 *12:2 *140:D 0.716154
2 *12:1 *12 88.0625
3 *12:0 *12:2 6
4 *12:0 *12:1 1.35714
*END

*D_NET *13 0.00177751

*CONN
*P *13 I *C 30 54 *L 0
*I *141:D I *C 30 33 *L 0.000991 *D DLH_X1

*CAP
1 *13:0 8.1714e-06
2 *13:1 0.000883816
3 *13:2 4.9383e-06
4 *13 0.000875645
5 *141:D 4.9383e-06

*RES
1 *13:2 *141:D 0.716154
2 *13:1 *13 74.7946
3 *13:0 *13:2 6
4 *13:0 *13:1 0.678571
*END

*D_NET *14 0.00207964

*CONN
*I *176:A2 I *C 25 22 *L 0.000583 *D OR2_X1
*P *14 I *C 23 0 *L 0
*I *175:A1 I *C 22 22 *L 0.00059 *D NAND2_X1

*CAP
1 *14:0 1.59896e-05
2 *14:1 1.59896e-05
3 *14:2 2.82188e-06
4 *14:3 5.44295e-05
5 *176:A2 2.82188e-06
6 *14:5 0.000108859
7 *14:6 5.44295e-05
8 *14:7 0.000907982
9 *14:8 2.85907e-06
10 *14 0.000907982
11 *14:10 2.85907e-06
12 *14:11 1.31016e-06
13 *175:A1 1.31016e-06

*RES
1 *14:11 *175:A1 0.19
2 *14:10 *14:11 6
3 *14:8 *14:10 0.241071
4 *14:7 *14 78.25
5 *14:6 *14:8 5
6 *14:5 *14:7 5
7 *14:5 *14:6 4.75
8 *14:3 *14:5 4.75
9 *14:2 *176:A2 0.409231
10 *14:1 *14:3 5
11 *14:0 *14:2 6
12 *14:0 *14:1 1.34821
*END

*D_NET *15 0.00224856

*CONN
*I *173:A2 I *C 25 25 *L 0.000583 *D OR2_X1
*P *15 I *C 26 0 *L 0
*I *172:A1 I *C 27 22 *L 0.00059 *D NAND2_X1

*CAP
1 *15:0 8.04774e-06
2 *15:1 2.99672e-05
3 *15:2 4.83751e-06
4 *15:3 2.19195e-05
5 *173:A2 4.83751e-06
6 *15:5 5.44295e-05
7 *15:6 5.44295e-05
8 *15:7 0.000115527
9 *15:8 0.0010287
10 *15 0.000905123
11 *15:10 8.04774e-06
12 *15:11 6.34924e-06
13 *172:A1 6.34924e-06

*RES
1 *15:11 *172:A1 0.920769
2 *15:10 *15:11 6
3 *15:8 *15:10 0.678571
4 *15:8 *15 78.0089
5 *15:7 *15:8 9.74107
6 *15:6 *15:7 5
7 *15:5 *15:6 4.75
8 *15:3 *15:5 5
9 *15:2 *173:A2 0.701538
10 *15:1 *15:3 1.84821
11 *15:0 *15:2 6
12 *15:0 *15:1 0.678571
*END

*D_NET *16 0.00303988

*CONN
*I *134:A I *C 23 22 *L 0.000474 *D BUF_X32
*P *16 I *C 26 54 *L 0
*I *133:A I *C 27 32 *L 0.000563 *D CLKBUF_X3

*CAP
1 *16:0 8.04774e-06
2 *16:1 0.000407269
3 *16:2 3.62814e-06
4 *16:3 0.000399221
5 *134:A 3.62814e-06
6 *16:5 0.000139962
7 *16:6 0.000139962
8 *16:7 1.96479e-05
9 *16:8 0.000965552
10 *16 0.000914133
11 *16:10 3.17711e-05
12 *16:11 3.52735e-06
13 *133:A 3.52735e-06

*RES
1 *16:11 *133:A 0.511538
2 *16:10 *16:11 6
3 *16:8 *16:10 2.71429
4 *16:8 *16 79
5 *16:7 *16:8 1.67857
6 *16:6 *16:7 5
7 *16:5 *16:6 12.2143
8 *16:3 *16:5 5
9 *16:2 *134:A 0.526154
10 *16:1 *16:3 33.8214
11 *16:0 *16:2 6
12 *16:0 *16:1 0.678571
*END

*D_NET *17 0.00221999

*CONN
*I *137:A I *C 22 32 *L 0.000474 *D BUF_X32
*P *17 I *C 24 54 *L 0
*I *136:A I *C 26 32 *L 0.000563 *D CLKBUF_X3

*CAP
1 *17:0 2.0902e-06
2 *17:1 2.0902e-06
3 *17:2 3.62814e-06
4 *17:3 9.33077e-05
5 *137:A 3.62814e-06
6 *17:5 0.000186615
7 *17:6 9.33077e-05
8 *17:7 0.000904518
9 *17:8 9.61494e-06
10 *17 0.000904518
11 *17:10 9.61494e-06
12 *17:11 3.52735e-06
13 *136:A 3.52735e-06

*RES
1 *17:11 *136:A 0.511538
2 *17:10 *17:11 6
3 *17:8 *17:10 0.821429
4 *17:7 *17 78.1786
5 *17:6 *17:8 5
6 *17:5 *17:7 5
7 *17:5 *17:6 8.14286
8 *17:3 *17:5 8.14286
9 *17:2 *137:A 0.526154
10 *17:1 *17:3 5
11 *17:0 *17:2 6
12 *17:0 *17:1 0.178571
*END

*D_NET *18 0.00175273

*CONN
*P *18 O *C 29 0 *L 0
*I *152:Q O *C 29 21 *L 0 *D SDFFR_X2

*CAP
1 *18:0 8.1714e-06
2 *18:1 0.000870015
3 *18:2 6.34924e-06
4 *18 0.000861844
5 *152:Q 6.34924e-06

*RES
1 *18:2 *152:Q 0.920769
2 *18:1 *18 73.9911
3 *18:0 *18:2 6
4 *18:0 *18:1 0.678571
*END

*D_NET *19 0.00255683

*CONN
*I *153:Q O *C 29 25 *L 0 *D SDFFR_X2
*P *19 O *C 29 0 *L 0

*CAP
1 *19:0 8.1714e-06
2 *19:1 1.12894e-05
3 *19:2 6.34924e-06
4 *19:3 3.11803e-06
5 *153:Q 6.34924e-06
6 *19:5 1.47201e-06
7 *19:6 1.47201e-06
8 *19:7 0.00125931
9 *19 0.00125931

*RES
1 *19:7 *19 37.275
2 *19:6 *19:7 5
3 *19:5 *19:6 0.107143
4 *19:3 *19:5 5
5 *19:2 *153:Q 0.920769
6 *19:1 *19:3 0.258929
7 *19:0 *19:2 6
8 *19:0 *19:1 0.678571
*END

*D_NET *20 0.00217602

*CONN
*I *154:Q O *C 37 29 *L 0 *D SDFFR_X2
*P *20 O *C 37 54 *L 0

*CAP
1 *20:0 8.1714e-06
2 *20:1 2.93525e-05
3 *20:2 6.34924e-06
4 *20:3 2.11811e-05
5 *154:Q 6.34924e-06
6 *20:5 8.94259e-07
7 *20:6 8.94259e-07
8 *20:7 0.000182291
9 *20:8 0.000182291
10 *20:9 8.94259e-07
11 *20:10 8.94259e-07
12 *20:11 0.000868226
13 *20 0.000868226

*RES
1 *20:11 *20 74.1786
2 *20:10 *20:11 5
3 *20:9 *20:10 0.0714286
4 *20:8 *20:9 5
5 *20:7 *20:8 5.46
6 *20:6 *20:7 5
7 *20:5 *20:6 0.0714286
8 *20:3 *20:5 5
9 *20:2 *154:Q 0.920769
10 *20:1 *20:3 1.75893
11 *20:0 *20:2 6
12 *20:0 *20:1 0.678571
*END

*D_NET *21 0.00173284

*CONN
*P *21 O *C 41 54 *L 0
*I *155:Q O *C 41 33 *L 0 *D SDFFR_X2

*CAP
1 *21:0 0.000865108
2 *21 0.000865108
3 *21:2 1.31016e-06
4 *155:Q 1.31016e-06

*RES
1 *21:2 *155:Q 0.19
2 *21:0 *21:2 6
3 *21:0 *21 73.9196
*END

*D_NET *22 0.00198093

*CONN
*P *22 O *C 22 0 *L 0
*I *159:Q O *C 22 24 *L 0 *D SDFFR_X2

*CAP
1 *22:0 8.04774e-06
2 *22:1 0.000984118
3 *22:2 6.34924e-06
4 *22 0.00097607
5 *159:Q 6.34924e-06

*RES
1 *22:2 *159:Q 0.920769
2 *22:1 *22 83.9911
3 *22:0 *22:2 6
4 *22:0 *22:1 0.678571
*END

*D_NET *23 0.00181513

*CONN
*I *158:Q O *C 22 21 *L 0 *D SDFFR_X2
*P *23 O *C 0 21 *L 0

*CAP
1 *23:0 8.04774e-06
2 *23:1 1.09068e-05
3 *23:2 6.34924e-06
4 *23:3 2.85907e-06
5 *158:Q 6.34924e-06
6 *23:5 0.000890311
7 *23 0.000890311

*RES
1 *23:5 *23 77.6964
2 *23:3 *23:5 5
3 *23:2 *158:Q 0.920769
4 *23:1 *23:3 0.241071
5 *23:0 *23:2 6
6 *23:0 *23:1 0.678571
*END

*D_NET *24 0.00224608

*CONN
*I *157:Q O *C 22 28 *L 0 *D SDFFR_X2
*P *24 O *C 0 28 *L 0

*CAP
1 *24:0 8.04774e-06
2 *24:1 1.68367e-05
3 *24:2 6.34924e-06
4 *24:3 8.78898e-06
5 *157:Q 6.34924e-06
6 *24:5 1.63698e-05
7 *24:6 1.63698e-05
8 *24:7 1.40224e-05
9 *24:8 1.40224e-05
10 *24:9 0.00106946
11 *24 0.00106946

*RES
1 *24:9 *24 32.0325
2 *24:8 *24:9 3
3 *24:7 *24:8 0.42
4 *24:6 *24:7 5
5 *24:5 *24:6 1.42857
6 *24:3 *24:5 5
7 *24:2 *157:Q 0.920769
8 *24:1 *24:3 0.741071
9 *24:0 *24:2 6
10 *24:0 *24:1 0.678571
*END

*D_NET *25 0.00197202

*CONN
*P *25 O *C 22 54 *L 0
*I *156:Q O *C 22 31 *L 0 *D SDFFR_X2

*CAP
1 *25:0 7.94278e-06
2 *25:1 0.000979661
3 *25:2 6.34924e-06
4 *25 0.000971718
5 *156:Q 6.34924e-06

*RES
1 *25:2 *156:Q 0.920769
2 *25:1 *25 83.9196
3 *25:0 *25:2 6
4 *25:0 *25:1 0.678571
*END

*D_NET *26 0.00205302

*CONN
*I *144:Q O *C 38 31 *L 0 *D DFFR_X1
*P *26 O *C 38 54 *L 0

*CAP
1 *26:0 1.63428e-05
2 *26:1 0.000999825
3 *26:2 1.31016e-06
4 *26:3 0.000983482
5 *144:Q 1.31016e-06
6 *26:5 2.33269e-05
7 *26:6 2.33269e-05
8 *26:7 2.04622e-06
9 *26 2.04622e-06

*RES
1 *26:7 *26 0.178571
2 *26:6 *26:7 5
3 *26:5 *26:6 2.03571
4 *26:3 *26:5 5
5 *26:2 *144:Q 0.19
6 *26:1 *26:3 83.7411
7 *26:0 *26:2 6
8 *26:0 *26:1 1.35714
*END

*D_NET *27 0.00112177

*CONN
*I *233:Q O *C 33 32 *L 0 *D DFFR_X2
*I *228:A I *C 33 32 *L 0.00119 *D XNOR2_X1
*I *222:A1 I *C 33 33 *L 0.000576 *D AND2_X1
*I *210:B2 I *C 30 27 *L 0.00063 *D AOI21_X1
*I *218:A1 I *C 30 26 *L 0.000611 *D NOR2_X1

*CAP
1 *27:0 2.96751e-05
2 *27:1 1.63428e-05
3 *27:2 5.16088e-06
4 *27:3 0.000258152
5 *27:4 6.34924e-06
6 *27:5 4.9383e-06
7 *27:6 4.90284e-05
8 *27:7 0.000217295
9 *233:Q 6.34924e-06
10 *228:A 4.9383e-06
11 *27:10 1.63428e-05
12 *27:11 0.000139841
13 *27:12 6.34924e-06
14 *27:13 0.000166828
15 *222:A1 6.34924e-06
16 *27:15 2.69868e-05
17 *27:16 9.13906e-06
18 *27:17 3.60119e-05
19 *27:18 9.13906e-06
20 *27:19 3.60119e-05
21 *27:20 1.31016e-06
22 *27:21 1.03041e-05
23 *210:B2 1.31016e-06
24 *27:23 1.03041e-05
25 *27:24 9.13906e-06
26 *27:25 1.73105e-05
27 *27:26 8.1714e-06
28 *27:27 6.34924e-06
29 *218:A1 6.34924e-06

*RES
1 *27:27 *218:A1 0.920769
2 *27:26 *27:27 6
3 *27:25 *27:26 0.678571
4 *27:24 *27:25 0.758929
5 *27:23 *27:24 5
6 *27:21 *27:23 0.75
7 *27:20 *210:B2 0.19
8 *27:19 *27:21 5
9 *27:18 *27:20 6
10 *27:17 *27:19 1.05
11 *27:16 *27:18 0.758929
12 *27:15 *27:17 5
13 *27:13 *27:16 5
14 *27:13 *27:15 1.96429
15 *27:12 *222:A1 0.920769
16 *27:11 *27:13 10.1786
17 *27:10 *27:12 6
18 *27:7 *27:11 5
19 *27:6 *27:10 1.35714
20 *27:5 *228:A 0.716154
21 *27:4 *233:Q 0.920769
22 *27:3 *27:7 18.0446
23 *27:3 *27:6 2.71429
24 *27:2 *27:5 6
25 *27:1 *27:4 6
26 *27:0 *27:3 0.678571
27 *27:0 *27:2 0.428571
28 *27:0 *27:1 1.35714
*END

*D_NET *28 0.000535885

*CONN
*I *178:A I *C 26 25 *L 0.000534 *D INV_X1
*I *159:D I *C 26 24 *L 0.000975 *D SDFFR_X2
*I *226:ZN O *C 27 27 *L 0 *D OAI21_X1

*CAP
1 *28:0 8.04774e-06
2 *28:1 7.04177e-05
3 *28:2 1.31016e-06
4 *28:3 2.85907e-06
5 *28:4 6.75587e-05
6 *178:A 1.31016e-06
7 *28:6 1.5142e-05
8 *28:7 8.04774e-06
9 *28:8 1.5142e-05
10 *28:9 6.34924e-06
11 *28:10 0.000112179
12 *159:D 6.34924e-06
13 *28:12 0.000112179
14 *28:13 3.15118e-05
15 *28:14 3.15118e-05
16 *28:15 8.78898e-06
17 *28:16 1.68367e-05
18 *28:17 8.04774e-06
19 *28:18 6.14767e-06
20 *226:ZN 6.14767e-06

*RES
1 *28:18 *226:ZN 0.891538
2 *28:17 *28:18 6
3 *28:16 *28:17 0.678571
4 *28:15 *28:16 0.741071
5 *28:14 *28:15 5
6 *28:13 *28:14 2.75
7 *28:12 *28:13 5
8 *28:10 *28:12 3.36
9 *28:9 *159:D 0.920769
10 *28:8 *28:10 5
11 *28:7 *28:9 6
12 *28:6 *28:8 1.32143
13 *28:4 *28:7 0.678571
14 *28:3 *28:6 5
15 *28:2 *178:A 0.19
16 *28:1 *28:4 5.01786
17 *28:1 *28:3 0.241071
18 *28:0 *28:2 6
19 *28:0 *28:1 0.678571
*END

*D_NET *29 0.00014035

*CONN
*I *155:D I *C 37 33 *L 0.000975 *D SDFFR_X2
*I *206:ZN O *C 37 32 *L 0 *D OAI211_X1

*CAP
1 *29:0 8.1714e-06
2 *29:1 5.50494e-05
3 *29:2 1.31016e-06
4 *29:3 5.50494e-05
5 *155:D 1.31016e-06
6 *29:5 8.1714e-06
7 *29:6 5.64377e-06
8 *206:ZN 5.64377e-06

*RES
1 *29:6 *206:ZN 0.818462
2 *29:5 *29:6 6
3 *29:3 *29:5 0.678571
4 *29:2 *155:D 0.19
5 *29:1 *29:3 3.89286
6 *29:0 *29:2 6
7 *29:0 *29:1 0.678571
*END

*D_NET *30 0.00246024

*CONN
*I *195:ZN O *C 26 22 *L 0 *D INV_X1
*I *154:D I *C 41 29 *L 0.000975 *D SDFFR_X2

*CAP
1 *30:0 8.04774e-06
2 *30:1 2.29784e-05
3 *30:2 1.31016e-06
4 *30:3 1.49307e-05
5 *195:ZN 1.31016e-06
6 *30:5 1.92345e-05
7 *30:6 1.92345e-05
8 *30:7 5.60897e-05
9 *30:8 5.60897e-05
10 *30:9 0.000771233
11 *30:10 0.000771233
12 *30:11 0.000322864
13 *30:12 0.000322864
14 *30:13 1.29668e-05
15 *30:14 1.29668e-05
16 *30:15 8.92403e-06
17 *30:16 1.70954e-05
18 *30:17 8.1714e-06
19 *30:18 6.34924e-06
20 *154:D 6.34924e-06

*RES
1 *30:18 *154:D 0.920769
2 *30:17 *30:18 6
3 *30:16 *30:17 0.678571
4 *30:15 *30:16 0.741071
5 *30:14 *30:15 5
6 *30:13 *30:14 1.03571
7 *30:12 *30:13 5
8 *30:11 *30:12 9.45
9 *30:10 *30:11 3
10 *30:9 *30:10 23.1
11 *30:8 *30:9 3
12 *30:7 *30:8 1.68
13 *30:6 *30:7 5
14 *30:5 *30:6 1.67857
15 *30:3 *30:5 5
16 *30:2 *195:ZN 0.19
17 *30:1 *30:3 1.25893
18 *30:0 *30:2 6
19 *30:0 *30:1 0.678571
*END

*D_NET *31 0.00120966

*CONN
*I *162:A I *C 27 22 *L 0.000534 *D INV_X1
*I *153:D I *C 33 25 *L 0.000975 *D SDFFR_X2
*I *152:D I *C 33 21 *L 0.000975 *D SDFFR_X2
*I *184:ZN O *C 34 21 *L 0 *D OAI22_X1

*CAP
1 *31:0 2.06488e-05
2 *31:1 2.06488e-05
3 *31:2 1.31016e-06
4 *31:3 0.000273697
5 *162:A 1.31016e-06
6 *31:5 0.000273697
7 *31:6 0.000180846
8 *31:7 0.000115797
9 *31:8 0.000100637
10 *31:9 1.63428e-05
11 *31:10 1.63428e-05
12 *31:11 2.903e-06
13 *31:12 6.34924e-06
14 *31:13 6.34924e-06
15 *31:14 6.5259e-05
16 *153:D 6.34924e-06
17 *152:D 6.34924e-06
18 *31:17 6.5259e-05
19 *31:18 9.67666e-07
20 *31:19 9.13906e-06
21 *31:20 8.1714e-06
22 *31:21 5.64377e-06
23 *184:ZN 5.64377e-06

*RES
1 *31:21 *184:ZN 0.818462
2 *31:20 *31:21 6
3 *31:19 *31:20 0.678571
4 *31:18 *31:19 0.0803571
5 *31:17 *31:18 5
6 *31:14 *31:17 4.75
7 *31:13 *152:D 0.920769
8 *31:12 *153:D 0.920769
9 *31:11 *31:14 5
10 *31:10 *31:13 6
11 *31:9 *31:12 6
12 *31:8 *31:11 0.241071
13 *31:8 *31:10 1.35714
14 *31:7 *31:9 1.35714
15 *31:6 *31:8 6.75893
16 *31:6 *31:7 8.25893
17 *31:5 *31:6 5
18 *31:3 *31:5 20.3571
19 *31:2 *162:A 0.19
20 *31:1 *31:3 5
21 *31:0 *31:2 6
22 *31:0 *31:1 1.74107
*END

*D_NET *32 0.00570762

*CONN
*I *158:SE I *C 26 21 *L 0.0017 *D SDFFR_X2
*I *177:B1 I *C 27 21 *L 0.000641 *D OAI22_X1
*I *159:SE I *C 26 24 *L 0.0017 *D SDFFR_X2
*I *171:B2 I *C 26 25 *L 0.000594 *D OAI22_X1
*I *235:ZN O *C 26 22 *L 0 *D INV_X4
*I *157:SE I *C 26 28 *L 0.0017 *D SDFFR_X2
*I *161:B1 I *C 31 24 *L 0.000641 *D OAI22_X1
*I *156:SE I *C 27 30 *L 0.0017 *D SDFFR_X2
*I *174:B2 I *C 24 25 *L 0.000594 *D OAI22_X1
*I *152:SE I *C 34 21 *L 0.0017 *D SDFFR_X2
*I *153:SE I *C 34 25 *L 0.0017 *D SDFFR_X2
*I *168:B2 I *C 26 32 *L 0.000594 *D OAI22_X1
*I *179:B2 I *C 30 31 *L 0.000594 *D OAI22_X1
*I *163:B1 I *C 42 22 *L 0.000641 *D OAI22_X1
*I *160:B1 I *C 34 25 *L 0.000641 *D OAI22_X1
*I *183:A1 I *C 42 25 *L 0.000611 *D NOR2_X1
*I *154:SE I *C 42 29 *L 0.0017 *D SDFFR_X2
*I *155:SE I *C 36 33 *L 0.0017 *D SDFFR_X2
*I *164:A1 I *C 41 33 *L 0.000712 *D OAI22_X1

*CAP
1 *32:0 1.20716e-05
2 *32:1 4.02387e-06
3 *32:2 9.8373e-05
4 *32:3 6.34924e-06
5 *32:4 0.000114574
6 *32:5 1.60955e-05
7 *158:SE 6.34924e-06
8 *32:7 6.1417e-05
9 *32:8 1.55513e-05
10 *32:9 6.34924e-06
11 *32:10 6.35348e-05
12 *32:11 8.04774e-06
13 *32:12 1.55513e-05
14 *177:B1 6.34924e-06
15 *32:14 6.1417e-05
16 *32:15 0.000245769
17 *32:16 6.34924e-06
18 *32:17 1.47189e-05
19 *32:18 0.000110762
20 *32:19 8.04774e-06
21 *32:20 0.000348319
22 *159:SE 6.34924e-06
23 *32:22 2.27666e-05
24 *32:23 0.000233181
25 *32:24 6.99808e-05
26 *32:25 6.34924e-06
27 *32:26 0.00010255
28 *32:27 9.13906e-06
29 *32:28 8.04774e-06
30 *32:29 0.000155376
31 *32:30 8.04774e-06
32 *32:31 6.99808e-05
33 *171:B2 6.34924e-06
34 *32:33 0.000169772
35 *32:34 9.13906e-06
36 *32:35 6.34924e-06
37 *32:36 2.22607e-05
38 *32:37 1.58856e-05
39 *32:38 6.34924e-06
40 *32:39 2.85907e-06
41 *32:40 4.33299e-05
42 *32:41 0.000141817
43 *32:42 1.31016e-06
44 *235:ZN 6.34924e-06
45 *32:44 0.000143655
46 *32:45 6.34924e-06
47 *157:SE 6.34924e-06
48 *32:47 2.85907e-06
49 *32:48 1.53751e-05
50 *32:49 2.79681e-05
51 *32:50 8.1714e-06
52 *161:B1 1.31016e-06
53 *32:52 2.33269e-05
54 *32:53 0.000120328
55 *156:SE 6.34924e-06
56 *32:55 1.31016e-06
57 *32:56 8.1714e-06
58 *32:57 0.000400877
59 *32:58 6.34924e-06
60 *32:59 3.20846e-05
61 *32:60 1.49451e-05
62 *174:B2 1.31016e-06
63 *32:62 6.34924e-06